# MODFLOW-USGs Constant-Head Boundary Package (CHD)
         1
 1    Stress Period 1
 2   0.000000  0.000000  0
